<net version="1.16"><location netOffset="0,0" convBoundary="0,0,3000,3000" origBoundary="0,0,3000,3000" projParameter="!"/></net>
