<routes><vType id="car" accel="2.6" decel="4.5" length="5" maxSpeed="13.9"/></routes>
