<net version="1.16"><location netOffset="0,0" convBoundary="0,0,1000,1000" origBoundary="0,0,1000,1000" projParameter="!"/></net>
