<nodes>
  <node id="C1" x="0" y="1000" type="traffic_light"/>
  <node id="NC1" x="1000" y="1000" type="traffic_light"/>
  <node id="C2" x="2000" y="1000" type="traffic_light"/>
  <node id="NC2" x="0" y="0" type="traffic_light"/>
  <node id="C3" x="1000" y="0" type="traffic_light"/>
  <node id="NC4" x="2000" y="0" type="traffic_light"/>
  <node id="C4" x="0" y="-1000" type="traffic_light"/>
  <node id="NC3" x="1000" y="-1000" type="traffic_light"/>
  <node id="C5" x="2000" y="-1000" type="traffic_light"/>
  <node id="N1" x="0" y="2000" type="priority"/>
  <node id="N2" x="1000" y="2000" type="priority"/>
  <node id="N3" x="2000" y="2000" type="priority"/>
  <node id="S1" x="0" y="-2000" type="priority"/>
  <node id="S2" x="1000" y="-2000" type="priority"/>
  <node id="S3" x="2000" y="-2000" type="priority"/>
  <node id="W1" x="-1000" y="1000" type="priority"/>
  <node id="W2" x="-1000" y="0" type="priority"/>
  <node id="W3" x="-1000" y="-1000" type="priority"/>
  <node id="E1" x="3000" y="1000" type="priority"/>
  <node id="E2" x="3000" y="0" type="priority"/>
  <node id="E3" x="3000" y="-1000" type="priority"/>
</nodes>
