<edges>
  <edge id="C1_NC1" from="C1" to="NC1" priority="1" numLanes="1" speed="13.9" length="1000"/>
  <edge id="NC1_C1" from="NC1" to="C1" priority="1" numLanes="1" speed="13.9" length="1000"/>
  <edge id="NC1_C2" from="NC1" to="C2" priority="1" numLanes="1" speed="13.9" length="1000"/>
  <edge id="C2_NC1" from="C2" to="NC1" priority="1" numLanes="1" speed="13.9" length="1000"/>
  <edge id="NC2_C3" from="NC2" to="C3" priority="1" numLanes="1" speed="13.9" length="1000"/>
  <edge id="C3_NC2" from="C3" to="NC2" priority="1" numLanes="1" speed="13.9" length="1000"/>
  <edge id="C3_NC4" from="C3" to="NC4" priority="1" numLanes="1" speed="13.9" length="1000"/>
  <edge id="NC4_C3" from="NC4" to="C3" priority="1" numLanes="1" speed="13.9" length="1000"/>
  <edge id="C4_NC3" from="C4" to="NC3" priority="1" numLanes="1" speed="13.9" length="1000"/>
  <edge id="NC3_C4" from="NC3" to="C4" priority="1" numLanes="1" speed="13.9" length="1000"/>
  <edge id="NC3_C5" from="NC3" to="C5" priority="1" numLanes="1" speed="13.9" length="1000"/>
  <edge id="C5_NC3" from="C5" to="NC3" priority="1" numLanes="1" speed="13.9" length="1000"/>
  <edge id="C1_NC2" from="C1" to="NC2" priority="1" numLanes="1" speed="13.9" length="1000"/>
  <edge id="NC2_C1" from="NC2" to="C1" priority="1" numLanes="1" speed="13.9" length="1000"/>
  <edge id="NC2_C4" from="NC2" to="C4" priority="1" numLanes="1" speed="13.9" length="1000"/>
  <edge id="C4_NC2" from="C4" to="NC2" priority="1" numLanes="1" speed="13.9" length="1000"/>
  <edge id="NC1_C3" from="NC1" to="C3" priority="1" numLanes="1" speed="13.9" length="1000"/>
  <edge id="C3_NC1" from="C3" to="NC1" priority="1" numLanes="1" speed="13.9" length="1000"/>
  <edge id="C3_NC3" from="C3" to="NC3" priority="1" numLanes="1" speed="13.9" length="1000"/>
  <edge id="NC3_C3" from="NC3" to="C3" priority="1" numLanes="1" speed="13.9" length="1000"/>
  <edge id="C2_NC4" from="C2" to="NC4" priority="1" numLanes="1" speed="13.9" length="1000"/>
  <edge id="NC4_C2" from="NC4" to="C2" priority="1" numLanes="1" speed="13.9" length="1000"/>
  <edge id="NC4_C5" from="NC4" to="C5" priority="1" numLanes="1" speed="13.9" length="1000"/>
  <edge id="C5_NC4" from="C5" to="NC4" priority="1" numLanes="1" speed="13.9" length="1000"/>
  <edge id="N1_C1" from="N1" to="C1" priority="1" numLanes="1" speed="13.9" length="1000"/>
  <edge id="C1_N1" from="C1" to="N1" priority="1" numLanes="1" speed="13.9" length="1000"/>
  <edge id="N2_NC1" from="N2" to="NC1" priority="1" numLanes="1" speed="13.9" length="1000"/>
  <edge id="NC1_N2" from="NC1" to="N2" priority="1" numLanes="1" speed="13.9" length="1000"/>
  <edge id="N3_C2" from="N3" to="C2" priority="1" numLanes="1" speed="13.9" length="1000"/>
  <edge id="C2_N3" from="C2" to="N3" priority="1" numLanes="1" speed="13.9" length="1000"/>
  <edge id="S1_C4" from="S1" to="C4" priority="1" numLanes="1" speed="13.9" length="1000"/>
  <edge id="C4_S1" from="C4" to="S1" priority="1" numLanes="1" speed="13.9" length="1000"/>
  <edge id="S2_NC3" from="S2" to="NC3" priority="1" numLanes="1" speed="13.9" length="1000"/>
  <edge id="NC3_S2" from="NC3" to="S2" priority="1" numLanes="1" speed="13.9" length="1000"/>
  <edge id="S3_C5" from="S3" to="C5" priority="1" numLanes="1" speed="13.9" length="1000"/>
  <edge id="C5_S3" from="C5" to="S3" priority="1" numLanes="1" speed="13.9" length="1000"/>
  <edge id="W1_C1" from="W1" to="C1" priority="1" numLanes="1" speed="13.9" length="1000"/>
  <edge id="C1_W1" from="C1" to="W1" priority="1" numLanes="1" speed="13.9" length="1000"/>
  <edge id="W2_NC2" from="W2" to="NC2" priority="1" numLanes="1" speed="13.9" length="1000"/>
  <edge id="NC2_W2" from="NC2" to="W2" priority="1" numLanes="1" speed="13.9" length="1000"/>
  <edge id="W3_C4" from="W3" to="C4" priority="1" numLanes="1" speed="13.9" length="1000"/>
  <edge id="C4_W3" from="C4" to="W3" priority="1" numLanes="1" speed="13.9" length="1000"/>
  <edge id="E1_C2" from="E1" to="C2" priority="1" numLanes="1" speed="13.9" length="1000"/>
  <edge id="C2_E1" from="C2" to="E1" priority="1" numLanes="1" speed="13.9" length="1000"/>
  <edge id="E2_NC4" from="E2" to="NC4" priority="1" numLanes="1" speed="13.9" length="1000"/>
  <edge id="NC4_E2" from="NC4" to="E2" priority="1" numLanes="1" speed="13.9" length="1000"/>
  <edge id="E3_C5" from="E3" to="C5" priority="1" numLanes="1" speed="13.9" length="1000"/>
  <edge id="C5_E3" from="C5" to="E3" priority="1" numLanes="1" speed="13.9" length="1000"/>
</edges>
