<configuration>
  <input>
    <net-file value="nine_intersection.net.xml"/>
    <route-files value="scenario2.rou.xml"/>
  </input>
  <time><begin value="0"/><end value="3600"/><step-length value="1"/></time>
</configuration>
